*Heading
** Job name: MPC-4m-Model-2-Cyclic Model name: MPC-4m-Model-2-Cyclic
** Generated by: Abaqus/CAE 6.14-1
*Preprint, echo=NO, model=NO, history=NO, contact=NO
** ----------------------------------------------------------------
**
** PART INSTANCE: top_segment
**
*Node
      1,           0.,        -236.,           0.
      2,           0.,        -236.,        1250.
      3,        -150.,        -236.,        1250.
      4,        -150.,        -236.,           0.
      5,         150.,        -236.,           0.
      6,         150.,        -236.,        1250.
      7,           0.,         236.,           0.
      8,           0.,         236.,        1250.
      9,        -150.,         236.,        1250.
     10,        -150.,         236.,           0.
     11,         150.,         236.,           0.
     12,         150.,         236.,        1250.
     13,           0.,        -236.,          25.
     14,           0.,        -236.,          50.
     15,           0.,        -236.,          75.
     16,           0.,        -236.,         100.
     17,           0.,        -236.,         125.
     18,           0.,        -236.,         150.
     19,           0.,        -236.,         175.
     20,           0.,        -236.,         200.
** ... 2224 like lines cut
*Element, type=S4R
  1,   1,  13, 383, 120
  2,  13,  14, 384, 383
  3,  14,  15, 385, 384
  4,  15,  16, 386, 385
  5,  16,  17, 387, 386
  6,  17,  18, 388, 387
  7,  18,  19, 389, 388
  8,  19,  20, 390, 389
  9,  20,  21, 391, 390
 10,  21,  22, 392, 391
 11,  22,  23, 393, 392
 12,  23,  24, 394, 393
 13,  24,  25, 395, 394
 14,  25,  26, 396, 395
 15,  26,  27, 397, 396
 16,  27,  28, 398, 397
 17,  28,  29, 399, 398
 18,  29,  30, 400, 399
 19,  30,  31, 401, 400
 20,  31,  32, 402, 401
** ... 2130 like lines cut
*Nset, nset=top_segment__PickedSet2
    1,    2,    3,    4,    5,    6,    7,    8,    9,   10,   11,   12,   13,   14,   15,   16
   17,   18,   19,   20,   21,   22,   23,   24,   25,   26,   27,   28,   29,   30,   31,   32
   33,   34,   35,   36,   37,   38,   39,   40,   41,   42,   43,   44,   45,   46,   47,   48
   49,   50,   51,   52,   53,   54,   55,   56,   57,   58,   59,   60,   61,   62,   63,   64
   65,   66,   67,   68,   69,   70,   71,   72,   73,   74,   75,   76,   77,   78,   79,   80
   81,   82,   83,   84,   85,   86,   87,   88,   89,   90,   91,   92,   93,   94,   95,   96
   97,   98,   99,  100,  101,  102,  103,  104,  105,  106,  107,  108,  109,  110,  111,  112
  113,  114,  115,  116,  117,  118,  119,  120,  121,  122,  123,  124,  125,  126,  127,  128
  129,  130,  131,  132,  133,  134,  135,  136,  137,  138,  139,  140,  141,  142,  143,  144
  145,  146,  147,  148,  149,  150,  151,  152,  153,  154,  155,  156,  157,  158,  159,  160
  161,  162,  163,  164,  165,  166,  167,  168,  169,  170,  171,  172,  173,  174,  175,  176
  177,  178,  179,  180,  181,  182,  183,  184,  185,  186,  187,  188,  189,  190,  191,  192
  193,  194,  195,  196,  197,  198,  199,  200,  201,  202,  203,  204,  205,  206,  207,  208
  209,  210,  211,  212,  213,  214,  215,  216,  217,  218,  219,  220,  221,  222,  223,  224
  225,  226,  227,  228,  229,  230,  231,  232,  233,  234,  235,  236,  237,  238,  239,  240
  241,  242,  243,  244,  245,  246,  247,  248,  249,  250,  251,  252,  253,  254,  255,  256
  257,  258,  259,  260,  261,  262,  263,  264,  265,  266,  267,  268,  269,  270,  271,  272
  273,  274,  275,  276,  277,  278,  279,  280,  281,  282,  283,  284,  285,  286,  287,  288
  289,  290,  291,  292,  293,  294,  295,  296,  297,  298,  299,  300,  301,  302,  303,  304
  305,  306,  307,  308,  309,  310,  311,  312,  313,  314,  315,  316,  317,  318,  319,  320
** ... 63 like lines cut
*Elset, elset=top_segment__PickedSet2, generate
    1,  1200,     1
*Nset, nset=top_segment__G3
    1,    2,    7,    8,   13,   14,   15,   16,   17,   18,   19,   20,   21,   22,   23,   24
   25,   26,   27,   28,   29,   30,   31,   32,   33,   34,   35,   36,   37,   38,   39,   40
   41,   42,   43,   44,   45,   46,   47,   48,   49,   50,   51,   52,   53,   54,   55,   56
   57,   58,   59,   60,   61,  180,  181,  182,  183,  184,  185,  186,  187,  188,  189,  190
  191,  192,  193,  194,  195,  196,  197,  198,  199,  200,  201,  202,  203,  204,  205,  206
  207,  208,  209,  210,  211,  212,  213,  214,  215,  216,  217,  218,  219,  220,  221,  222
  223,  224,  225,  226,  227,  228,  347,  348,  349,  350,  351,  352,  353,  354,  355,  356
  357,  358,  359,  360,  361,  362,  363,  364,  365,  366,  367,  368,  369,  370,  371,  372
  373,  374,  375,  376,  377,  378,  379,  380,  381,  382, 1363, 1364, 1365, 1366, 1367, 1368
 1369, 1370, 1371, 1372, 1373, 1374, 1375, 1376, 1377, 1378, 1379, 1380, 1381, 1382, 1383, 1384
 1385, 1386, 1387, 1388, 1389, 1390, 1391, 1392, 1393, 1394, 1395, 1396, 1397, 1398, 1399, 1400
 1401, 1402, 1403, 1404, 1405, 1406, 1407, 1408, 1409, 1410, 1411, 1412, 1413, 1414, 1415, 1416
 1417, 1418, 1419, 1420, 1421, 1422, 1423, 1424, 1425, 1426, 1427, 1428, 1429, 1430, 1431, 1432
 1433, 1434, 1435, 1436, 1437, 1438, 1439, 1440, 1441, 1442, 1443, 1444, 1445, 1446, 1447, 1448
 1449, 1450, 1451, 1452, 1453, 1454, 1455, 1456, 1457, 1458, 1459, 1460, 1461, 1462, 1463, 1464
 1465, 1466, 1467, 1468, 1469, 1470, 1471, 1472, 1473, 1474, 1475, 1476, 1477, 1478, 1479, 1480
 1481, 1482, 1483, 1484, 1485, 1486, 1487, 1488, 1489, 1490, 1491, 1492, 1493, 1494, 1495, 1496
 1497, 1498, 1499, 1500, 1501, 1502, 1503, 1504, 1505, 1506, 1507, 1508, 1509, 1510, 1511, 1512
 1513, 1514, 1515, 1516, 1517, 1518, 1519, 1520, 1521, 1522, 1523, 1524, 1525, 1526, 1527, 1528
 1529, 1530, 1531, 1532, 1533, 1534, 1535, 1536, 1537, 1538, 1539, 1540, 1541, 1542, 1543, 1544
** ... 44 like lines cut
*Elset, elset=top_segment__G3, generate
 1201,  2150,     1
*Nset, nset=top_segment_shell_top_nodes
   2,   3,   6,   8,   9,  12,  62,  63,  64,  65,  66, 175, 176, 177, 178, 179
 229, 230, 231, 232, 233, 342, 343, 344, 345, 346, 347, 348, 349, 350, 351, 352
 353, 354, 355, 356, 357, 358, 359, 360, 361, 362, 363, 364
*Nset, nset=top_segment_shell_bot_nodes
   1,   4,   5,   7,  10,  11, 116, 117, 118, 119, 120, 121, 122, 123, 124, 125
 283, 284, 285, 286, 287, 288, 289, 290, 291, 292, 365, 366, 367, 368, 369, 370
 371, 372, 373, 374, 375, 376, 377, 378, 379, 380, 381, 382
** Section: flange_1pt
*Shell Section, elset=top_segment__PickedSet2, material=umat-flange, controls=EC-1, section integration=GAUSS
28., 2
*Transverse Shear
1.72e+06, 1.72e+06, 0.
** Section: web_1pt
*Shell Section, elset=top_segment__G3, material=umat-web, controls=EC-1, section integration=GAUSS
14.5, 2
*Transverse Shear
890077., 890077., 0.
** ----------------------------------------------------------------
**
** PART INSTANCE: beam_section-1
**
*System
          0.,          0.,        750.,          1.,          0.,        750.
          0., 6.12323399573677e-17,        751.
*Node
   2245,           0.,         500.,           0.
   2246,           0.,        1250.,           0.
   2247,           0.,        2000.,           0.
   2248,           0.,         875.,           0.
   2249,           0.,        1625.,           0.
*Element, type=B31OS
2151, 2245, 2248
2152, 2248, 2246
2153, 2246, 2249
2154, 2249, 2247
*Nset, nset=beam_section-1_Set-1, generate
2245, 2249,  1
*Elset, elset=beam_section-1_Set-1, generate
2151, 2154,  1
*Nset, nset=beam_section-1_Set-2, generate
2245, 2249,  1
*Elset, elset=beam_section-1_Set-2, generate
2151, 2154,  1
** Section: heb500_sec  Profile: heb500
*Beam Section, elset=beam_section-1_Set-1, material=umat-flange, temperature=GRADIENTS, section=I
250., 500., 300., 300., 28., 28., 14.5
1.,0.,0.
*Transverse Shear
7.7e+08, 7.7e+08,
** ----------------------------------------------------------------
**
** PART INSTANCE: shell_segment-1
**
*System
          0.,          0.,       2750.,          1.,          0.,       2750.
*Node
   2250,           0.,        -236.,           0.
   2251,           0.,        -236.,        1250.
   2252,        -150.,        -236.,        1250.
   2253,        -150.,        -236.,           0.
   2254,         150.,        -236.,           0.
   2255,         150.,        -236.,        1250.
   2256,           0.,         236.,           0.
   2257,           0.,         236.,        1250.
   2258,        -150.,         236.,        1250.
   2259,        -150.,         236.,           0.
   2260,         150.,         236.,           0.
   2261,         150.,         236.,        1250.
   2262,           0.,        -236.,          25.
   2263,           0.,        -236.,          50.
   2264,           0.,        -236.,          75.
   2265,           0.,        -236.,         100.
   2266,           0.,        -236.,         125.
   2267,           0.,        -236.,         150.
   2268,           0.,        -236.,         175.
   2269,           0.,        -236.,         200.
** ... 2224 like lines cut
*Element, type=S4R
2155, 2250, 2262, 2632, 2369
2156, 2262, 2263, 2633, 2632
2157, 2263, 2264, 2634, 2633
2158, 2264, 2265, 2635, 2634
2159, 2265, 2266, 2636, 2635
2160, 2266, 2267, 2637, 2636
2161, 2267, 2268, 2638, 2637
2162, 2268, 2269, 2639, 2638
2163, 2269, 2270, 2640, 2639
2164, 2270, 2271, 2641, 2640
2165, 2271, 2272, 2642, 2641
2166, 2272, 2273, 2643, 2642
2167, 2273, 2274, 2644, 2643
2168, 2274, 2275, 2645, 2644
2169, 2275, 2276, 2646, 2645
2170, 2276, 2277, 2647, 2646
2171, 2277, 2278, 2648, 2647
2172, 2278, 2279, 2649, 2648
2173, 2279, 2280, 2650, 2649
2174, 2280, 2281, 2651, 2650
** ... 2130 like lines cut
*Nset, nset=shell_segment-1__PickedSet2
 2250, 2251, 2252, 2253, 2254, 2255, 2256, 2257, 2258, 2259, 2260, 2261, 2262, 2263, 2264, 2265
 2266, 2267, 2268, 2269, 2270, 2271, 2272, 2273, 2274, 2275, 2276, 2277, 2278, 2279, 2280, 2281
 2282, 2283, 2284, 2285, 2286, 2287, 2288, 2289, 2290, 2291, 2292, 2293, 2294, 2295, 2296, 2297
 2298, 2299, 2300, 2301, 2302, 2303, 2304, 2305, 2306, 2307, 2308, 2309, 2310, 2311, 2312, 2313
 2314, 2315, 2316, 2317, 2318, 2319, 2320, 2321, 2322, 2323, 2324, 2325, 2326, 2327, 2328, 2329
 2330, 2331, 2332, 2333, 2334, 2335, 2336, 2337, 2338, 2339, 2340, 2341, 2342, 2343, 2344, 2345
 2346, 2347, 2348, 2349, 2350, 2351, 2352, 2353, 2354, 2355, 2356, 2357, 2358, 2359, 2360, 2361
 2362, 2363, 2364, 2365, 2366, 2367, 2368, 2369, 2370, 2371, 2372, 2373, 2374, 2375, 2376, 2377
 2378, 2379, 2380, 2381, 2382, 2383, 2384, 2385, 2386, 2387, 2388, 2389, 2390, 2391, 2392, 2393
 2394, 2395, 2396, 2397, 2398, 2399, 2400, 2401, 2402, 2403, 2404, 2405, 2406, 2407, 2408, 2409
 2410, 2411, 2412, 2413, 2414, 2415, 2416, 2417, 2418, 2419, 2420, 2421, 2422, 2423, 2424, 2425
 2426, 2427, 2428, 2429, 2430, 2431, 2432, 2433, 2434, 2435, 2436, 2437, 2438, 2439, 2440, 2441
 2442, 2443, 2444, 2445, 2446, 2447, 2448, 2449, 2450, 2451, 2452, 2453, 2454, 2455, 2456, 2457
 2458, 2459, 2460, 2461, 2462, 2463, 2464, 2465, 2466, 2467, 2468, 2469, 2470, 2471, 2472, 2473
 2474, 2475, 2476, 2477, 2478, 2479, 2480, 2481, 2482, 2483, 2484, 2485, 2486, 2487, 2488, 2489
 2490, 2491, 2492, 2493, 2494, 2495, 2496, 2497, 2498, 2499, 2500, 2501, 2502, 2503, 2504, 2505
 2506, 2507, 2508, 2509, 2510, 2511, 2512, 2513, 2514, 2515, 2516, 2517, 2518, 2519, 2520, 2521
 2522, 2523, 2524, 2525, 2526, 2527, 2528, 2529, 2530, 2531, 2532, 2533, 2534, 2535, 2536, 2537
 2538, 2539, 2540, 2541, 2542, 2543, 2544, 2545, 2546, 2547, 2548, 2549, 2550, 2551, 2552, 2553
 2554, 2555, 2556, 2557, 2558, 2559, 2560, 2561, 2562, 2563, 2564, 2565, 2566, 2567, 2568, 2569
** ... 63 like lines cut
*Elset, elset=shell_segment-1__PickedSet2, generate
 2155,  3354,     1
*Nset, nset=shell_segment-1__G3
 2250, 2251, 2256, 2257, 2262, 2263, 2264, 2265, 2266, 2267, 2268, 2269, 2270, 2271, 2272, 2273
 2274, 2275, 2276, 2277, 2278, 2279, 2280, 2281, 2282, 2283, 2284, 2285, 2286, 2287, 2288, 2289
 2290, 2291, 2292, 2293, 2294, 2295, 2296, 2297, 2298, 2299, 2300, 2301, 2302, 2303, 2304, 2305
 2306, 2307, 2308, 2309, 2310, 2429, 2430, 2431, 2432, 2433, 2434, 2435, 2436, 2437, 2438, 2439
 2440, 2441, 2442, 2443, 2444, 2445, 2446, 2447, 2448, 2449, 2450, 2451, 2452, 2453, 2454, 2455
 2456, 2457, 2458, 2459, 2460, 2461, 2462, 2463, 2464, 2465, 2466, 2467, 2468, 2469, 2470, 2471
 2472, 2473, 2474, 2475, 2476, 2477, 2596, 2597, 2598, 2599, 2600, 2601, 2602, 2603, 2604, 2605
 2606, 2607, 2608, 2609, 2610, 2611, 2612, 2613, 2614, 2615, 2616, 2617, 2618, 2619, 2620, 2621
 2622, 2623, 2624, 2625, 2626, 2627, 2628, 2629, 2630, 2631, 3612, 3613, 3614, 3615, 3616, 3617
 3618, 3619, 3620, 3621, 3622, 3623, 3624, 3625, 3626, 3627, 3628, 3629, 3630, 3631, 3632, 3633
 3634, 3635, 3636, 3637, 3638, 3639, 3640, 3641, 3642, 3643, 3644, 3645, 3646, 3647, 3648, 3649
 3650, 3651, 3652, 3653, 3654, 3655, 3656, 3657, 3658, 3659, 3660, 3661, 3662, 3663, 3664, 3665
 3666, 3667, 3668, 3669, 3670, 3671, 3672, 3673, 3674, 3675, 3676, 3677, 3678, 3679, 3680, 3681
 3682, 3683, 3684, 3685, 3686, 3687, 3688, 3689, 3690, 3691, 3692, 3693, 3694, 3695, 3696, 3697
 3698, 3699, 3700, 3701, 3702, 3703, 3704, 3705, 3706, 3707, 3708, 3709, 3710, 3711, 3712, 3713
 3714, 3715, 3716, 3717, 3718, 3719, 3720, 3721, 3722, 3723, 3724, 3725, 3726, 3727, 3728, 3729
 3730, 3731, 3732, 3733, 3734, 3735, 3736, 3737, 3738, 3739, 3740, 3741, 3742, 3743, 3744, 3745
 3746, 3747, 3748, 3749, 3750, 3751, 3752, 3753, 3754, 3755, 3756, 3757, 3758, 3759, 3760, 3761
 3762, 3763, 3764, 3765, 3766, 3767, 3768, 3769, 3770, 3771, 3772, 3773, 3774, 3775, 3776, 3777
 3778, 3779, 3780, 3781, 3782, 3783, 3784, 3785, 3786, 3787, 3788, 3789, 3790, 3791, 3792, 3793
** ... 44 like lines cut
*Elset, elset=shell_segment-1__G3, generate
 3355,  4304,     1
*Nset, nset=shell_segment-1_shell_top_nodes
2251,2252,2255,2257,2258,2261,2311,2312,2313,2314,2315,2424,2425,2426,2427,2428
2478,2479,2480,2481,2482,2591,2592,2593,2594,2595,2596,2597,2598,2599,2600,2601
2602,2603,2604,2605,2606,2607,2608,2609,2610,2611,2612,2613
*Nset, nset=shell_segment-1_shell_bot_nodes
2250,2253,2254,2256,2259,2260,2365,2366,2367,2368,2369,2370,2371,2372,2373,2374
2532,2533,2534,2535,2536,2537,2538,2539,2540,2541,2614,2615,2616,2617,2618,2619
2620,2621,2622,2623,2624,2625,2626,2627,2628,2629,2630,2631
** Section: flange_1pt
*Shell Section, elset=shell_segment-1__PickedSet2, material=umat-flange, controls=EC-1, section integration=GAUSS
28., 2
*Transverse Shear
1.72e+06, 1.72e+06, 0.
** Section: web_1pt
*Shell Section, elset=shell_segment-1__G3, material=umat-web, controls=EC-1, section integration=GAUSS
14.5, 2
*Transverse Shear
890077., 890077., 0.
*System
*Node
   4494,           0.,           0.,        4000.
*Node
   4495,           0.,           0.,           0.
*Nset, nset=Set-10
4494,
*Nset, nset=Set-11
4494,
*Nset, nset=Set-18
4494,
*Nset, nset=Set-19
2246,
*Nset, nset=base_node
4495,
*Elset, elset=bot_interf_elem
   50,  100,  150,  200,  250,  300,  301,  351,  401,  451,  501,  551,  650,  700,  750,  800
  850,  900,  901,  951, 1001, 1051, 1101, 1151, 1201, 1202, 1203, 1204, 1205, 1206, 1207, 1208
 1209, 1210, 1211, 1212, 1213, 1214, 1215, 1216, 1217, 1218, 1219
*Nset, nset=control_node
4494,
*Elset, elset=top_interf_elem
 2155, 2205, 2255, 2305, 2355, 2405, 2504, 2554, 2604, 2654, 2704, 2754, 2755, 2805, 2855, 2905
 2955, 3005, 3104, 3154, 3204, 3254, 3304, 3354, 4286, 4287, 4288, 4289, 4290, 4291, 4292, 4293
 4294, 4295, 4296, 4297, 4298, 4299, 4300, 4301, 4302, 4303, 4304
*Nset, nset=_PickedSet7
4494,
*Nset, nset=_PickedSet8
4495,
*Nset, nset=_PickedSet12
4495,
*Nset, nset=_PickedSet13
4494,
*Nset, nset=_PickedSet22
2250,2253,2254,2256,2259,2260,2365,2366,2367,2368,2369,2370,2371,2372,2373,2374
2532,2533,2534,2535,2536,2537,2538,2539,2540,2541,2614,2615,2616,2617,2618,2619
2620,2621,2622,2623,2624,2625,2626,2627,2628,2629,2630,2631
*Elset, elset=_PickedSet22
 2155, 2205, 2255, 2305, 2355, 2405, 2504, 2554, 2604, 2654, 2704, 2754, 2755, 2805, 2855, 2905
 2955, 3005, 3104, 3154, 3204, 3254, 3304, 3354, 4286, 4287, 4288, 4289, 4290, 4291, 4292, 4293
 4294, 4295, 4296, 4297, 4298, 4299, 4300, 4301, 4302, 4303, 4304
*Nset, nset=_PickedSet23
2247,
*Nset, nset=_PickedSet24
   2,   3,   6,   8,   9,  12,  62,  63,  64,  65,  66, 175, 176, 177, 178, 179
 229, 230, 231, 232, 233, 342, 343, 344, 345, 346, 347, 348, 349, 350, 351, 352
 353, 354, 355, 356, 357, 358, 359, 360, 361, 362, 363, 364
*Elset, elset=_PickedSet24
   50,  100,  150,  200,  250,  300,  301,  351,  401,  451,  501,  551,  650,  700,  750,  800
  850,  900,  901,  951, 1001, 1051, 1101, 1151, 1201, 1202, 1203, 1204, 1205, 1206, 1207, 1208
 1209, 1210, 1211, 1212, 1213, 1214, 1215, 1216, 1217, 1218, 1219
*Nset, nset=_PickedSet25
2245,
*Surface, type=NODE, name=_PickedSet24_CNS_
_PickedSet24, 1.
*Surface, type=NODE, name=_PickedSet22_CNS_
_PickedSet22, 1.
** Constraint: bot_mpc
*MPC, user, mode=node
1280145,2245,  2,   3,   6,   8,   9,  12,  62,  63,  64,  65,  66, 175, 176, 177,
0,      178, 179, 229, 230, 231, 232, 233, 342, 343, 344, 345, 346, 347, 348, 349,
0,      350, 351, 352, 353, 354, 355, 356, 357, 358, 359, 360, 361, 362, 363, 364
** Constraint: rigid_base
*Rigid Body, ref node=_PickedSet8, tie nset=top_segment_shell_bot_nodes
** Constraint: top_mpc
*MPC, user, mode=node
1280145,2247,2250,2253,2254,2256,2259,2260,2365,2366,2367,2368,2369,2370,2371,2372,
0,      2373,2374,2532,2533,2534,2535,2536,2537,2538,2539,2540,2541,2614,2615,2616,
0,      2617,2618,2619,2620,2621,2622,2623,2624,2625,2626,2627,2628,2629,2630,2631
** Constraint: top_plate
*Rigid Body, ref node=_PickedSet7, tie nset=shell_segment-1_shell_top_nodes
**
** ELEMENT CONTROLS
**
*Section Controls, name=EC-1, hourglass=ENHANCED
1., 1., 1.
*Amplitude, name=lateral_pattern
             0.,              0.,              1.,          0.0037,              2.,              0.,              3.,         -0.0037
             4.,              0.,              5.,          0.0037,              6.,              0.,              7.,         -0.0037
             8.,              0.,              9.,           0.005,             10.,              0.,             11.,          -0.005
            12.,              0.,             13.,           0.005,             14.,              0.,             15.,          -0.005
            16.,              0.,             17.,          0.0075,             18.,              0.,             19.,         -0.0075
            20.,              0.,             21.,          0.0075,             22.,              0.,             23.,         -0.0075
            24.,              0.,             25.,          0.0075,             26.,              0.,             27.,         -0.0075
            28.,              0.,             29.,          0.0075,             30.,              0.,             31.,         -0.0075
            32.,              0.,             33.,            0.01,             34.,              0.,             35.,           -0.01
            36.,              0.,             37.,            0.01,             38.,              0.,             39.,           -0.01
            40.,              0.,             41.,            0.01,             42.,              0.,             43.,           -0.01
            44.,              0.,             45.,            0.01,             46.,              0.,             47.,           -0.01
            48.,              0.,             49.,           0.015,             50.,              0.,             51.,          -0.015
            52.,              0.,             53.,           0.015,             54.,              0.,             55.,          -0.015
            56.,              0.,             57.,            0.02,             58.,              0.,             59.,           -0.02
            60.,              0.,             61.,            0.02,             62.,              0.,             63.,           -0.02
            64.,              0.,             65.,            0.03,             66.,              0.,             67.,           -0.03
            68.,              0.,             69.,            0.03,             70.,              0.,             71.,           -0.03
            72.,              0.,             73.,            0.04,             74.,              0.,             75.,           -0.04
            76.,              0.,             77.,            0.04,             78.,              0.,             79.,           -0.04
** ... 13 like lines cut
**
** MATERIALS
**
*Material, name=elastic
*Elastic
191520., 0.3
*Material, name=umat-flange
*Depvar
     10,
*User Material, constants=11
196000.,     0.3,    315.,  138.01,   11.36,   96.16,  223.66, 18587.8
  257.31, 1351.98,    6.52
*Material, name=umat-upd
*Depvar
     10,
*User Material, constants=11
191520.,     0.3,  265.29,  104.44,   11.63,      0.,      1.,  12998.
  99.515, 1560.41,    7.35
*Material, name=umat-upd-2
*Depvar
     10,
*User Material, constants=11
185970.,    0.3, 332.18, 120.48,   8.14,  93.15, 261.75, 21102.
  173.6, 2300.6,  10.42
*Material, name=umat-web
*Depvar
     10,
*User Material, constants=11
196000.,     0.3,    335.,  139.32,   14.07,  120.33,  274.73,  28528.
  315.17, 2569.45,   24.68
**
** BOUNDARY CONDITIONS
**
** Name: bot_fix Type: Displacement/Rotation
*Boundary
_PickedSet12, 1, 1
_PickedSet12, 2, 2
_PickedSet12, 3, 3
_PickedSet12, 4, 4
_PickedSet12, 5, 5
_PickedSet12, 6, 6
** Name: top_fix Type: Displacement/Rotation
*Boundary
Set-10, 1, 1
Set-10, 4, 4
Set-10, 5, 5
Set-10, 6, 6
*IMPERFECTION, input=MPC-4m-Model-2-Imp.txt
** ----------------------------------------------------------------
**
** STEP: gravity_loading
**
*Step, name=gravity_loading, nlgeom=YES, inc=10000
*Static
0.1, 1., 1e-35, 0.1
**
** LOADS
**
** Name: gravity_load   Type: Concentrated force
*Cload
_PickedSet13, 3, -1.6e+06
** Name: twist_imp   Type: Moment
*Cload, follower
Set-19, 6, 2.3e+07
**
** OUTPUT REQUESTS
**
*Restart, write, frequency=0
**
** FIELD OUTPUT: F-Output-1
**
*Output, field, time interval=0.125
*Node Output
CF, RF, U
*Element Output, directions=YES
LE, NFORC, PE, PEEQ, PEMAG, S
*Contact Output
CDISP, CSTRESS
**
** HISTORY OUTPUT: H-Output-1
**
*Output, history, variable=PRESELECT
*End Step
** ----------------------------------------------------------------
**
** STEP: lateral_loading
**
*Step, name=lateral_loading, nlgeom=YES, inc=100000
*Static
0.125, 128., 1e-06, 0.125
**
** BOUNDARY CONDITIONS
**
** Name: disp_control Type: Displacement/Rotation
*Boundary, amplitude=lateral_pattern
Set-11, 2, 2, 4000.
**
** OUTPUT REQUESTS
**
*Restart, write, frequency=0
**
** FIELD OUTPUT: F-Output-1
**
*Output, field, time interval=0.125
*Node Output
CF, RF, U
*Element Output, directions=YES
LE, NFORC, PE, PEEQ, PEMAG, S
*Contact Output
CDISP, CSTRESS
**
** HISTORY OUTPUT: H-Output-1
**
*Output, history, variable=PRESELECT
*End Step
